Circuit: * E:\DROPBOX (POLITECNICO DI TORIN)\MYCOMMON\SPICEPY\BENCHMARK\TRAN_NETWORK3\tran_network3.ASC

Per .tran options, skipping operating point for transient analysis.

Date: Sat Nov 11 16:06:07 2017
Total elapsed time: 0.140 seconds.

tnom = 27
temp = 27
method = modified trap
totiter = 2034
traniter = 2034
tranpoints = 1018
accept = 1018
rejected = 0
matrix size = 4
fillins = 0
solver = Normal
Matrix Compiler1: 100 bytes object code size  0.1/0.1/[0.1]
Matrix Compiler2: off  [0.1]/0.2/0.1

