Circuit: * E:\DROPBOX (POLITECNICO DI TORIN)\MYCOMMON\SPICEPY\BENCHMARK\TRAN_NETWORK1\tran_network1.ASC

Per .tran options, skipping operating point for transient analysis.

Date: Sat Nov 11 15:56:39 2017
Total elapsed time: 0.124 seconds.

tnom = 27
temp = 27
method = modified trap
totiter = 2434
traniter = 2434
tranpoints = 1218
accept = 1218
rejected = 0
matrix size = 3
fillins = 0
solver = Normal
Matrix Compiler1: 104 bytes object code size  0.1/0.1/[0.1]
Matrix Compiler2: 189 bytes object code size  0.1/0.2/[0.1]

