Circuit: * E:\DROPBOX (POLITECNICO DI TORIN)\MYCOMMON\SPICEPY\BENCHMARK\dc_network.ASC

Direct Newton iteration for .op point succeeded.

Date: Sat Nov 11 14:30:37 2017
Total elapsed time: 0.016 seconds.

tnom = 27
temp = 27
method = trap
totiter = 3
traniter = 0
tranpoints = 0
accept = 0
rejected = 0
matrix size = 5
fillins = 0
solver = Normal
Matrix Compiler1: 114 bytes object code size
Matrix Compiler2: 301 bytes object code size
