Circuit: * E:\DROPBOX (POLITECNICO DI TORIN)\MYCOMMON\SPICEPY\BENCHMARK\TRAN_NETWORK4\tran_network4.ASC

Per .tran options, skipping operating point for transient analysis.

Date: Sat Nov 11 16:19:50 2017
Total elapsed time: 0.078 seconds.

tnom = 27
temp = 27
method = modified trap
totiter = 2134
traniter = 2134
tranpoints = 1068
accept = 1068
rejected = 0
matrix size = 4
fillins = 0
solver = Normal
Matrix Compiler1: 100 bytes object code size  0.1/0.1/[0.1]
Matrix Compiler2: 248 bytes object code size  0.2/0.2/[0.1]

