Circuit: * E:\DROPBOX (POLITECNICO DI TORIN)\MYCOMMON\SPICEPY\BENCHMARK\AC_NETWORK\ac_network.ASC


Date: Sat Nov 11 15:21:24 2017
Total elapsed time: 0.016 seconds.

tnom = 27
temp = 27
method = trap
totiter = 0
traniter = 0
tranpoints = 0
accept = 0
rejected = 0
matrix size = 5
fillins = 1
solver = Normal

